data_949-TOPOS_pcu_pcu
_database_code_TOPOS                pcu
_audit_creation_date                2020-11-10
_audit_creation_method              ToposPro
_chemical_formula_structural        pcu
_chemical_formula_sum               C1
_cell_length_a                      1
_cell_length_b                      1
_cell_length_c                      1
_cell_angle_alpha                   90
_cell_angle_beta                    90
_cell_angle_gamma                   90
_cell_volume                        1
_cell_formula_units_Z               1
_symmetry_space_group_name_H-M      'P m -3 m'
_symmetry_Int_Tables_number         221
_refine_ls_R_factor_all             0
loop_
_symmetry_equiv_pos_site_id
_symmetry_equiv_pos_as_xyz
1 x,y,z
2 -x,-y,z
3 x,-y,-z
4 -x,y,-z
5 z,x,y
6 y,z,x
7 -z,-x,y
8 -y,z,-x
9 z,-x,-y
10 -y,-z,x
11 -z,x,-y
12 y,-z,-x
13 -y,-x,-z
14 y,x,-z
15 y,-x,z
16 -y,x,z
17 -x,-z,-y
18 -z,-y,-x
19 x,z,-y
20 -z,y,x
21 x,-z,y
22 z,y,-x
23 -x,z,y
24 z,-y,x
25 -x,-y,-z
26 x,y,-z
27 -x,y,z
28 x,-y,z
29 -z,-x,-y
30 -y,-z,-x
31 z,x,-y
32 y,-z,x
33 -z,x,y
34 y,z,-x
35 z,-x,y
36 -y,z,x
37 y,x,z
38 -y,-x,z
39 -y,x,-z
40 y,-x,-z
41 x,z,y
42 z,y,x
43 -x,-z,y
44 z,-y,-x
45 -x,z,-y
46 -z,-y,x
47 x,-z,-y
48 -z,y,-x
loop_
_atom_site_label
_atom_site_type_symbol
_atom_site_symmetry_multiplicity
_atom_site_fract_x
_atom_site_fract_y
_atom_site_fract_z
_atom_site_occupancy
C1 C 1 0.00000 0.00000 0.00000 1.0000
loop_
_topol_link.node_label_1
_topol_link.node_label_2
_topol_link.distance
_topol_link.site_symmetry_symop_1
_topol_link.site_symmetry_translation_1_x
_topol_link.site_symmetry_translation_1_y
_topol_link.site_symmetry_translation_1_z
_topol_link.site_symmetry_symop_2
_topol_link.site_symmetry_translation_2_x
_topol_link.site_symmetry_translation_2_y
_topol_link.site_symmetry_translation_2_z
_topol_link.type
_topol_link.multiplicity
_topol_link.voronoi_solidangle
C1 C1 1.0000 1 0 0 0 1 -1 0 0 v 3 0.00
#End of data_949-TOPOS_pcu_pcu

